!-Generator IDFEditor 1.51
!-Option SortedOrder
!-NOTE: All comments with '!-' are ignored by the IDFEditor and are generated automatically.
!-      Use '!' comments if they need to be retained when using the IDFEditor.
!-   ===========  ALL OBJECTS IN CLASS: VERSION ===========

  Version,9.6;

!-   ===========  ALL OBJECTS IN CLASS: SIMULATIONCONTROL ===========

  SimulationControl,
    No,                      !- Do Zone Sizing Calculation
    No,                      !- Do System Sizing Calculation
    No,                      !- Do Plant Sizing Calculation
    No,                      !- Run Simulation for Sizing Periods
    Yes,                     !- Run Simulation for Weather File Run Periods
    No,                      !- Do HVAC Sizing Simulation for Sizing Periods
    1;                       !- Maximum Number of HVAC Sizing Simulation Passes

!-   ===========  ALL OBJECTS IN CLASS: BUILDING ===========

  Building,
    Building 1,              !- Name
    352.2,                   !- North Axis {deg}
    Suburbs,                 !- Terrain
    ,                        !- Loads Convergence Tolerance Value {W}
    ,                        !- Temperature Convergence Tolerance Value {deltaC}
    FullExterior,            !- Solar Distribution
    25,                      !- Maximum Number of Warmup Days
    6;                       !- Minimum Number of Warmup Days

!-   ===========  ALL OBJECTS IN CLASS: SHADOWCALCULATION ===========

  ShadowCalculation,
    PolygonClipping,         !- Shading Calculation Method
    Periodic,                !- Shading Calculation Update Frequency Method
    20,                      !- Shading Calculation Update Frequency
    15000,                   !- Maximum Figures in Shadow Overlap Calculations
    SutherlandHodgman,       !- Polygon Clipping Algorithm
    512,                     !- Pixel Counting Resolution
    DetailedSkyDiffuseModeling,  !- Sky Diffuse Modeling Algorithm
    No,                      !- Output External Shading Calculation Results
    No,                      !- Disable Self-Shading Within Shading Zone Groups
    No;                      !- Disable Self-Shading From Shading Zone Groups to Other Zones

!-   ===========  ALL OBJECTS IN CLASS: SURFACECONVECTIONALGORITHM:INSIDE ===========

  SurfaceConvectionAlgorithm:Inside,TARP;

!-   ===========  ALL OBJECTS IN CLASS: SURFACECONVECTIONALGORITHM:OUTSIDE ===========

  SurfaceConvectionAlgorithm:Outside,DOE-2;

!-   ===========  ALL OBJECTS IN CLASS: HEATBALANCEALGORITHM ===========

  HeatBalanceAlgorithm,ConductionTransferFunction,200;

!-   ===========  ALL OBJECTS IN CLASS: ZONEAIRCONTAMINANTBALANCE ===========

  ZoneAirContaminantBalance,
    Yes,                     !- Carbon Dioxide Concentration
    Outdoor_Carbon_Dioxide_Schedule,  !- Outdoor Carbon Dioxide Schedule Name
    No;                      !- Generic Contaminant Concentration

!-   ===========  ALL OBJECTS IN CLASS: TIMESTEP ===========

  Timestep,4;

!-   ===========  ALL OBJECTS IN CLASS: SITE:LOCATION ===========

  Site:Location,
    Copenhagen Roskilde AP,  !- Name
    55.4333316,              !- Latitude {deg}
    11.5666644,              !- Longitude {deg}
    1,                       !- Time Zone {hr}
    44.5;                    !- Elevation {m}

!-   ===========  ALL OBJECTS IN CLASS: RUNPERIOD ===========

  RunPeriod,
    September,               !- Name
    9,                       !- Begin Month
    1,                       !- Begin Day of Month
    2020,                    !- Begin Year
    9,                       !- End Month
    30,                      !- End Day of Month
    2020,                    !- End Year
    Tuesday,                 !- Day of Week for Start Day
    No,                      !- Use Weather File Holidays and Special Days
    No,                      !- Use Weather File Daylight Saving Period
    No,                      !- Apply Weekend Holiday Rule
    Yes,                     !- Use Weather File Rain Indicators
    Yes;                     !- Use Weather File Snow Indicators

!-   ===========  ALL OBJECTS IN CLASS: SITE:GROUNDTEMPERATURE:BUILDINGSURFACE ===========

  Site:GroundTemperature:BuildingSurface,18,18,18,18,18,18,18,18,18,18,18,18;

!-   ===========  ALL OBJECTS IN CLASS: SCHEDULETYPELIMITS ===========

  ScheduleTypeLimits,
    Fractional,              !- Name
    0,                       !- Lower Limit Value
    1,                       !- Upper Limit Value
    Continuous;              !- Numeric Type

  ScheduleTypeLimits,
    ActivityLevel,           !- Name
    0,                       !- Lower Limit Value
    ,                        !- Upper Limit Value
    Continuous,              !- Numeric Type
    activitylevel;           !- Unit Type

  ScheduleTypeLimits,
    Any Number;              !- Name

  ScheduleTypeLimits,
    Velocity,                !- Name
    0,                       !- Lower Limit Value
    ,                        !- Upper Limit Value
    Continuous,              !- Numeric Type
    velocity;                !- Unit Type

!-   ===========  ALL OBJECTS IN CLASS: SCHEDULE:COMPACT ===========

  Schedule:Compact,
    3075333_NORM,            !- Name
    Fractional,              !- Schedule Type Limits Name
    Through: 08/31,          !- Field 1
    For: AllDays,            !- Field 2
    Until: 24:00,0,          !- Field 3
    Through: 09/01,          !- Field 5
    For: AllDays,            !- Field 6
    Until: 07:30,0,          !- Field 7
    Until: 08:00,0,          !- Field 9
    Until: 08:30,0,          !- Field 11
    Until: 09:00,0,          !- Field 13
    Until: 09:30,0,          !- Field 15
    Until: 10:00,0,          !- Field 17
    Until: 10:30,0,          !- Field 19
    Until: 11:00,0,          !- Field 21
    Until: 11:30,0,          !- Field 23
    Until: 12:00,0,          !- Field 25
    Until: 12:30,0,          !- Field 27
    Until: 13:00,0,          !- Field 29
    Until: 13:30,0,          !- Field 31
    Until: 14:00,0,          !- Field 33
    Until: 14:30,0,          !- Field 35
    Until: 15:00,0,          !- Field 37
    Until: 15:30,0,          !- Field 39
    Until: 16:00,0,          !- Field 41
    Until: 16:30,0,          !- Field 43
    Until: 17:00,0,          !- Field 45
    Until: 17:30,0,          !- Field 47
    Until: 24:00,0,          !- Field 49
    Through: 09/02,          !- Field 51
    For: AllDays,            !- Field 52
    Until: 07:30,0,          !- Field 53
    Until: 08:00,0,          !- Field 55
    Until: 08:30,0,          !- Field 57
    Until: 09:00,0,          !- Field 59
    Until: 09:30,0,          !- Field 61
    Until: 10:00,0,          !- Field 63
    Until: 10:30,0,          !- Field 65
    Until: 11:00,0,          !- Field 67
    Until: 11:30,0,          !- Field 69
    Until: 12:00,0,          !- Field 71
    Until: 12:30,0,          !- Field 73
    Until: 13:00,0,          !- Field 75
    Until: 13:30,0,          !- Field 77
    Until: 14:00,0,          !- Field 79
    Until: 14:30,0,          !- Field 81
    Until: 15:00,0,          !- Field 83
    Until: 15:30,0,          !- Field 85
    Until: 16:00,0,          !- Field 87
    Until: 16:30,0,          !- Field 89
    Until: 17:00,0,          !- Field 91
    Until: 17:30,0,          !- Field 93
    Until: 24:00,0,          !- Field 95
    Through: 09/03,          !- Field 97
    For: AllDays,            !- Field 98
    Until: 07:30,0,          !- Field 99
    Until: 08:00,0,          !- Field 101
    Until: 08:30,0,          !- Field 103
    Until: 09:00,0,          !- Field 105
    Until: 09:30,0,          !- Field 107
    Until: 10:00,0,          !- Field 109
    Until: 10:30,0,          !- Field 111
    Until: 11:00,0,          !- Field 113
    Until: 11:30,0,          !- Field 115
    Until: 12:00,0,          !- Field 117
    Until: 12:30,0,          !- Field 119
    Until: 13:00,0,          !- Field 121
    Until: 13:30,0,          !- Field 123
    Until: 14:00,0,          !- Field 125
    Until: 14:30,0,          !- Field 127
    Until: 15:00,0,          !- Field 129
    Until: 15:30,0,          !- Field 131
    Until: 16:00,0,          !- Field 133
    Until: 16:30,0,          !- Field 135
    Until: 17:00,0,          !- Field 137
    Until: 17:30,0,          !- Field 139
    Until: 24:00,0,          !- Field 141
    Through: 09/04,          !- Field 143
    For: AllDays,            !- Field 144
    Until: 07:30,0,          !- Field 145
    Until: 08:00,0,          !- Field 147
    Until: 08:30,0,          !- Field 149
    Until: 09:00,0,          !- <none>
    Until: 09:30,0,          !- <none>
    Until: 10:00,0,          !- <none>
    Until: 10:30,0,          !- <none>
    Until: 11:00,0,          !- <none>
    Until: 11:30,0,          !- <none>
    Until: 12:00,0,          !- <none>
    Until: 12:30,0,          !- <none>
    Until: 13:00,0,          !- <none>
    Until: 13:30,0,          !- <none>
    Until: 14:00,0,          !- <none>
    Until: 14:30,0,          !- <none>
    Until: 15:00,0,          !- <none>
    Until: 15:30,0,          !- <none>
    Until: 16:00,0,          !- <none>
    Until: 16:30,0,          !- <none>
    Until: 17:00,0,          !- <none>
    Until: 17:30,0,          !- <none>
    Until: 24:00,0,          !- <none>
    Through: 09/05,          !- <none>
    For: AllDays,            !- <none>
    Until: 07:30,0,          !- <none>
    Until: 08:00,0,          !- <none>
    Until: 08:30,0,          !- <none>
    Until: 09:00,0,          !- <none>
    Until: 09:30,0,          !- <none>
    Until: 10:00,0,          !- <none>
    Until: 10:30,0,          !- <none>
    Until: 11:00,0,          !- <none>
    Until: 11:30,0,          !- <none>
    Until: 12:00,0,          !- <none>
    Until: 12:30,0,          !- <none>
    Until: 13:00,0,          !- <none>
    Until: 13:30,0,          !- <none>
    Until: 14:00,0,          !- <none>
    Until: 14:30,0,          !- <none>
    Until: 15:00,0,          !- <none>
    Until: 15:30,0,          !- <none>
    Until: 16:00,0,          !- <none>
    Until: 16:30,0,          !- <none>
    Until: 17:00,0,          !- <none>
    Until: 17:30,0,          !- <none>
    Until: 24:00,0,          !- <none>
    Through: 09/06,          !- <none>
    For: AllDays,            !- <none>
    Until: 07:30,0,          !- <none>
    Until: 08:00,0,          !- <none>
    Until: 08:30,0,          !- <none>
    Until: 09:00,0,          !- <none>
    Until: 09:30,0,          !- <none>
    Until: 10:00,0,          !- <none>
    Until: 10:30,0,          !- <none>
    Until: 11:00,0,          !- <none>
    Until: 11:30,0,          !- <none>
    Until: 12:00,0,          !- <none>
    Until: 12:30,0,          !- <none>
    Until: 13:00,0,          !- <none>
    Until: 13:30,0,          !- <none>
    Until: 14:00,0,          !- <none>
    Until: 14:30,0,          !- <none>
    Until: 15:00,0,          !- <none>
    Until: 15:30,0,          !- <none>
    Until: 16:00,0,          !- <none>
    Until: 16:30,0,          !- <none>
    Until: 17:00,0,          !- <none>
    Until: 17:30,0,          !- <none>
    Until: 24:00,0,          !- <none>
    Through: 09/07,          !- <none>
    For: AllDays,            !- <none>
    Until: 07:30,0,          !- <none>
    Until: 08:00,0,          !- <none>
    Until: 08:30,0,          !- <none>
    Until: 09:00,0,          !- <none>
    Until: 09:30,0,          !- <none>
    Until: 10:00,0,          !- <none>
    Until: 10:30,0,          !- <none>
    Until: 11:00,0,          !- <none>
    Until: 11:30,0,          !- <none>
    Until: 12:00,0,          !- <none>
    Until: 12:30,0,          !- <none>
    Until: 13:00,0,          !- <none>
    Until: 13:30,0,          !- <none>
    Until: 14:00,0,          !- <none>
    Until: 14:30,0,          !- <none>
    Until: 15:00,0,          !- <none>
    Until: 15:30,0,          !- <none>
    Until: 16:00,0,          !- <none>
    Until: 16:30,0,          !- <none>
    Until: 17:00,0,          !- <none>
    Until: 17:30,0,          !- <none>
    Until: 24:00,0,          !- <none>
    Through: 09/08,          !- <none>
    For: AllDays,            !- <none>
    Until: 07:30,0,          !- <none>
    Until: 08:00,0,          !- <none>
    Until: 08:30,0,          !- <none>
    Until: 09:00,0,          !- <none>
    Until: 09:30,0,          !- <none>
    Until: 10:00,0,          !- <none>
    Until: 10:30,0,          !- <none>
    Until: 11:00,0,          !- <none>
    Until: 11:30,0,          !- <none>
    Until: 12:00,0,          !- <none>
    Until: 12:30,0,          !- <none>
    Until: 13:00,0,          !- <none>
    Until: 13:30,0,          !- <none>
    Until: 14:00,0,          !- <none>
    Until: 14:30,0,          !- <none>
    Until: 15:00,0,          !- <none>
    Until: 15:30,0,          !- <none>
    Until: 16:00,0,          !- <none>
    Until: 16:30,0,          !- <none>
    Until: 17:00,0,          !- <none>
    Until: 17:30,0,          !- <none>
    Until: 24:00,0,          !- <none>
    Through: 09/09,          !- <none>
    For: AllDays,            !- <none>
    Until: 07:30,0,          !- <none>
    Until: 08:00,0,          !- <none>
    Until: 08:30,0,          !- <none>
    Until: 09:00,0,          !- <none>
    Until: 09:30,0,          !- <none>
    Until: 10:00,0,          !- <none>
    Until: 10:30,0,          !- <none>
    Until: 11:00,0,          !- <none>
    Until: 11:30,0,          !- <none>
    Until: 12:00,0,          !- <none>
    Until: 12:30,0,          !- <none>
    Until: 13:00,0,          !- <none>
    Until: 13:30,0,          !- <none>
    Until: 14:00,0,          !- <none>
    Until: 14:30,0,          !- <none>
    Until: 15:00,0,          !- <none>
    Until: 15:30,0,          !- <none>
    Until: 16:00,0,          !- <none>
    Until: 16:30,0,          !- <none>
    Until: 17:00,0,          !- <none>
    Until: 17:30,0,          !- <none>
    Until: 24:00,0,          !- <none>
    Through: 09/10,          !- <none>
    For: AllDays,            !- <none>
    Until: 07:30,0,          !- <none>
    Until: 08:00,0,          !- <none>
    Until: 08:30,0,          !- <none>
    Until: 09:00,0,          !- <none>
    Until: 09:30,0,          !- <none>
    Until: 10:00,0,          !- <none>
    Until: 10:30,0,          !- <none>
    Until: 11:00,0,          !- <none>
    Until: 11:30,0,          !- <none>
    Until: 12:00,0,          !- <none>
    Until: 12:30,0,          !- <none>
    Until: 13:00,0,          !- <none>
    Until: 13:30,0,          !- <none>
    Until: 14:00,0,          !- <none>
    Until: 14:30,0,          !- <none>
    Until: 15:00,0,          !- <none>
    Until: 15:30,0,          !- <none>
    Until: 16:00,0,          !- <none>
    Until: 16:30,0,          !- <none>
    Until: 17:00,0,          !- <none>
    Until: 17:30,0,          !- <none>
    Until: 24:00,0,          !- <none>
    Through: 09/11,          !- <none>
    For: AllDays,            !- <none>
    Until: 07:30,0,          !- <none>
    Until: 08:00,0,          !- <none>
    Until: 08:30,0,          !- <none>
    Until: 09:00,0,          !- <none>
    Until: 09:30,0,          !- <none>
    Until: 10:00,0,          !- <none>
    Until: 10:30,0,          !- <none>
    Until: 11:00,0,          !- <none>
    Until: 11:30,0,          !- <none>
    Until: 12:00,0,          !- <none>
    Until: 12:30,0,          !- <none>
    Until: 13:00,0,          !- <none>
    Until: 13:30,0,          !- <none>
    Until: 14:00,0,          !- <none>
    Until: 14:30,0,          !- <none>
    Until: 15:00,0,          !- <none>
    Until: 15:30,0,          !- <none>
    Until: 16:00,0,          !- <none>
    Until: 16:30,0,          !- <none>
    Until: 17:00,0,          !- <none>
    Until: 17:30,0,          !- <none>
    Until: 24:00,0,          !- <none>
    Through: 09/12,          !- <none>
    For: AllDays,            !- <none>
    Until: 07:30,0,          !- <none>
    Until: 08:00,0,          !- <none>
    Until: 08:30,0,          !- <none>
    Until: 09:00,0,          !- <none>
    Until: 09:30,0,          !- <none>
    Until: 10:00,0,          !- <none>
    Until: 10:30,0,          !- <none>
    Until: 11:00,0,          !- <none>
    Until: 11:30,0,          !- <none>
    Until: 12:00,0,          !- <none>
    Until: 12:30,0,          !- <none>
    Until: 13:00,0,          !- <none>
    Until: 13:30,0,          !- <none>
    Until: 14:00,0,          !- <none>
    Until: 14:30,0,          !- <none>
    Until: 15:00,0,          !- <none>
    Until: 15:30,0,          !- <none>
    Until: 16:00,0,          !- <none>
    Until: 16:30,0,          !- <none>
    Until: 17:00,0,          !- <none>
    Until: 17:30,0,          !- <none>
    Until: 24:00,0,          !- <none>
    Through: 09/13,          !- <none>
    For: AllDays,            !- <none>
    Until: 07:30,0,          !- <none>
    Until: 08:00,0,          !- <none>
    Until: 08:30,0,          !- <none>
    Until: 09:00,0,          !- <none>
    Until: 09:30,0,          !- <none>
    Until: 10:00,0,          !- <none>
    Until: 10:30,0,          !- <none>
    Until: 11:00,0,          !- <none>
    Until: 11:30,0,          !- <none>
    Until: 12:00,0,          !- <none>
    Until: 12:30,0,          !- <none>
    Until: 13:00,0,          !- <none>
    Until: 13:30,0,          !- <none>
    Until: 14:00,0,          !- <none>
    Until: 14:30,0,          !- <none>
    Until: 15:00,0,          !- <none>
    Until: 15:30,0,          !- <none>
    Until: 16:00,0,          !- <none>
    Until: 16:30,0,          !- <none>
    Until: 17:00,0,          !- <none>
    Until: 17:30,0,          !- <none>
    Until: 24:00,0,          !- <none>
    Through: 09/14,          !- <none>
    For: AllDays,            !- <none>
    Until: 07:30,0,          !- <none>
    Until: 08:00,0,          !- <none>
    Until: 08:30,0,          !- <none>
    Until: 09:00,0,          !- <none>
    Until: 09:30,0,          !- <none>
    Until: 10:00,0,          !- <none>
    Until: 10:30,0,          !- <none>
    Until: 11:00,0,          !- <none>
    Until: 11:30,0,          !- <none>
    Until: 12:00,0,          !- <none>
    Until: 12:30,0,          !- <none>
    Until: 13:00,0,          !- <none>
    Until: 13:30,0,          !- <none>
    Until: 14:00,0,          !- <none>
    Until: 14:30,0,          !- <none>
    Until: 15:00,0,          !- <none>
    Until: 15:30,0,          !- <none>
    Until: 16:00,0,          !- <none>
    Until: 16:30,0,          !- <none>
    Until: 17:00,0,          !- <none>
    Until: 17:30,0,          !- <none>
    Until: 24:00,0,          !- <none>
    Through: 09/15,          !- <none>
    For: AllDays,            !- <none>
    Until: 07:30,0,          !- <none>
    Until: 08:00,0,          !- <none>
    Until: 08:30,0,          !- <none>
    Until: 09:00,0,          !- <none>
    Until: 09:30,0,          !- <none>
    Until: 10:00,0,          !- <none>
    Until: 10:30,0,          !- <none>
    Until: 11:00,0,          !- <none>
    Until: 11:30,0,          !- <none>
    Until: 12:00,0,          !- <none>
    Until: 12:30,0,          !- <none>
    Until: 13:00,0,          !- <none>
    Until: 13:30,0,          !- <none>
    Until: 14:00,0,          !- <none>
    Until: 14:30,0,          !- <none>
    Until: 15:00,0,          !- <none>
    Until: 15:30,0,          !- <none>
    Until: 16:00,0,          !- <none>
    Until: 16:30,0,          !- <none>
    Until: 17:00,0,          !- <none>
    Until: 17:30,0,          !- <none>
    Until: 24:00,0,          !- <none>
    Through: 09/16,          !- <none>
    For: AllDays,            !- <none>
    Until: 07:30,0,          !- <none>
    Until: 08:00,0,          !- <none>
    Until: 08:30,0,          !- <none>
    Until: 09:00,0,          !- <none>
    Until: 09:30,0,          !- <none>
    Until: 10:00,0,          !- <none>
    Until: 10:30,0,          !- <none>
    Until: 11:00,0,          !- <none>
    Until: 11:30,0,          !- <none>
    Until: 12:00,0,          !- <none>
    Until: 12:30,0,          !- <none>
    Until: 13:00,0,          !- <none>
    Until: 13:30,0,          !- <none>
    Until: 14:00,0,          !- <none>
    Until: 14:30,0,          !- <none>
    Until: 15:00,0,          !- <none>
    Until: 15:30,0,          !- <none>
    Until: 16:00,0,          !- <none>
    Until: 16:30,0,          !- <none>
    Until: 17:00,0,          !- <none>
    Until: 17:30,0,          !- <none>
    Until: 24:00,0,          !- <none>
    Through: 09/17,          !- <none>
    For: AllDays,            !- <none>
    Until: 07:30,0,          !- <none>
    Until: 08:00,0,          !- <none>
    Until: 08:30,0,          !- <none>
    Until: 09:00,0,          !- <none>
    Until: 09:30,0,          !- <none>
    Until: 10:00,0,          !- <none>
    Until: 10:30,0,          !- <none>
    Until: 11:00,0,          !- <none>
    Until: 11:30,0,          !- <none>
    Until: 12:00,0,          !- <none>
    Until: 12:30,0,          !- <none>
    Until: 13:00,0,          !- <none>
    Until: 13:30,0,          !- <none>
    Until: 14:00,0,          !- <none>
    Until: 14:30,0,          !- <none>
    Until: 15:00,0,          !- <none>
    Until: 15:30,0,          !- <none>
    Until: 16:00,0,          !- <none>
    Until: 16:30,0,          !- <none>
    Until: 17:00,0,          !- <none>
    Until: 17:30,0,          !- <none>
    Until: 24:00,0,          !- <none>
    Through: 09/18,          !- <none>
    For: AllDays,            !- <none>
    Until: 07:30,0,          !- <none>
    Until: 08:00,0,          !- <none>
    Until: 08:30,0,          !- <none>
    Until: 09:00,0,          !- <none>
    Until: 09:30,0,          !- <none>
    Until: 10:00,0,          !- <none>
    Until: 10:30,0,          !- <none>
    Until: 11:00,0,          !- <none>
    Until: 11:30,0,          !- <none>
    Until: 12:00,0,          !- <none>
    Until: 12:30,0,          !- <none>
    Until: 13:00,0,          !- <none>
    Until: 13:30,0,          !- <none>
    Until: 14:00,0,          !- <none>
    Until: 14:30,0,          !- <none>
    Until: 15:00,0,          !- <none>
    Until: 15:30,0,          !- <none>
    Until: 16:00,0,          !- <none>
    Until: 16:30,0,          !- <none>
    Until: 17:00,0,          !- <none>
    Until: 17:30,0,          !- <none>
    Until: 24:00,0,          !- <none>
    Through: 09/19,          !- <none>
    For: AllDays,            !- <none>
    Until: 07:30,0,          !- <none>
    Until: 08:00,0,          !- <none>
    Until: 08:30,0,          !- <none>
    Until: 09:00,0,          !- <none>
    Until: 09:30,0,          !- <none>
    Until: 10:00,0,          !- <none>
    Until: 10:30,0,          !- <none>
    Until: 11:00,0,          !- <none>
    Until: 11:30,0,          !- <none>
    Until: 12:00,0,          !- <none>
    Until: 12:30,0,          !- <none>
    Until: 13:00,0,          !- <none>
    Until: 13:30,0,          !- <none>
    Until: 14:00,0,          !- <none>
    Until: 14:30,0,          !- <none>
    Until: 15:00,0,          !- <none>
    Until: 15:30,0,          !- <none>
    Until: 16:00,0,          !- <none>
    Until: 16:30,0,          !- <none>
    Until: 17:00,0,          !- <none>
    Until: 17:30,0,          !- <none>
    Until: 24:00,0,          !- <none>
    Through: 09/20,          !- <none>
    For: AllDays,            !- <none>
    Until: 07:30,0,          !- <none>
    Until: 08:00,0,          !- <none>
    Until: 08:30,0,          !- <none>
    Until: 09:00,0,          !- <none>
    Until: 09:30,0,          !- <none>
    Until: 10:00,0,          !- <none>
    Until: 10:30,0,          !- <none>
    Until: 11:00,0,          !- <none>
    Until: 11:30,0,          !- <none>
    Until: 12:00,0,          !- <none>
    Until: 12:30,0,          !- <none>
    Until: 13:00,0,          !- <none>
    Until: 13:30,0,          !- <none>
    Until: 14:00,0,          !- <none>
    Until: 14:30,0,          !- <none>
    Until: 15:00,0,          !- <none>
    Until: 15:30,0,          !- <none>
    Until: 16:00,0,          !- <none>
    Until: 16:30,0,          !- <none>
    Until: 17:00,0,          !- <none>
    Until: 17:30,0,          !- <none>
    Until: 24:00,0,          !- <none>
    Through: 09/21,          !- <none>
    For: AllDays,            !- <none>
    Until: 07:30,0,          !- <none>
    Until: 08:00,0,          !- <none>
    Until: 08:30,0,          !- <none>
    Until: 09:00,0,          !- <none>
    Until: 09:30,0,          !- <none>
    Until: 10:00,0,          !- <none>
    Until: 10:30,0,          !- <none>
    Until: 11:00,0,          !- <none>
    Until: 11:30,0,          !- <none>
    Until: 12:00,0,          !- <none>
    Until: 12:30,0,          !- <none>
    Until: 13:00,0,          !- <none>
    Until: 13:30,0,          !- <none>
    Until: 14:00,0,          !- <none>
    Until: 14:30,0,          !- <none>
    Until: 15:00,0,          !- <none>
    Until: 15:30,0,          !- <none>
    Until: 16:00,0,          !- <none>
    Until: 16:30,0,          !- <none>
    Until: 17:00,0,          !- <none>
    Until: 17:30,0,          !- <none>
    Until: 24:00,0,          !- <none>
    Through: 09/22,          !- <none>
    For: AllDays,            !- <none>
    Until: 07:30,0,          !- <none>
    Until: 08:00,0,          !- <none>
    Until: 08:30,0,          !- <none>
    Until: 09:00,0,          !- <none>
    Until: 09:30,0,          !- <none>
    Until: 10:00,0,          !- <none>
    Until: 10:30,0,          !- <none>
    Until: 11:00,0,          !- <none>
    Until: 11:30,0,          !- <none>
    Until: 12:00,0,          !- <none>
    Until: 12:30,0,          !- <none>
    Until: 13:00,0,          !- <none>
    Until: 13:30,0,          !- <none>
    Until: 14:00,0,          !- <none>
    Until: 14:30,0,          !- <none>
    Until: 15:00,0,          !- <none>
    Until: 15:30,0,          !- <none>
    Until: 16:00,0,          !- <none>
    Until: 16:30,0,          !- <none>
    Until: 17:00,0,          !- <none>
    Until: 17:30,0,          !- <none>
    Until: 24:00,0,          !- <none>
    Through: 09/23,          !- <none>
    For: AllDays,            !- <none>
    Until: 07:30,0,          !- <none>
    Until: 08:00,0,          !- <none>
    Until: 08:30,0,          !- <none>
    Until: 09:00,0,          !- <none>
    Until: 09:30,0,          !- <none>
    Until: 10:00,0,          !- <none>
    Until: 10:30,0,          !- <none>
    Until: 11:00,0,          !- <none>
    Until: 11:30,0,          !- <none>
    Until: 12:00,0,          !- <none>
    Until: 12:30,0,          !- <none>
    Until: 13:00,0,          !- <none>
    Until: 13:30,0,          !- <none>
    Until: 14:00,0,          !- <none>
    Until: 14:30,0,          !- <none>
    Until: 15:00,0,          !- <none>
    Until: 15:30,0,          !- <none>
    Until: 16:00,0,          !- <none>
    Until: 16:30,0,          !- <none>
    Until: 17:00,0,          !- <none>
    Until: 17:30,0,          !- <none>
    Until: 24:00,0,          !- <none>
    Through: 09/24,          !- <none>
    For: AllDays,            !- <none>
    Until: 07:30,0,          !- <none>
    Until: 08:00,0,          !- <none>
    Until: 08:30,0,          !- <none>
    Until: 09:00,0,          !- <none>
    Until: 09:30,0,          !- <none>
    Until: 10:00,0,          !- <none>
    Until: 10:30,0,          !- <none>
    Until: 11:00,0,          !- <none>
    Until: 11:30,0,          !- <none>
    Until: 12:00,0,          !- <none>
    Until: 12:30,0,          !- <none>
    Until: 13:00,0,          !- <none>
    Until: 13:30,0,          !- <none>
    Until: 14:00,0,          !- <none>
    Until: 14:30,0,          !- <none>
    Until: 15:00,0,          !- <none>
    Until: 15:30,0,          !- <none>
    Until: 16:00,0,          !- <none>
    Until: 16:30,0,          !- <none>
    Until: 17:00,0,          !- <none>
    Until: 17:30,0,          !- <none>
    Until: 24:00,0,          !- <none>
    Through: 09/25,          !- <none>
    For: AllDays,            !- <none>
    Until: 07:30,0,          !- <none>
    Until: 08:00,0,          !- <none>
    Until: 08:30,0,          !- <none>
    Until: 09:00,0,          !- <none>
    Until: 09:30,0,          !- <none>
    Until: 10:00,0,          !- <none>
    Until: 10:30,0,          !- <none>
    Until: 11:00,0,          !- <none>
    Until: 11:30,0,          !- <none>
    Until: 12:00,0,          !- <none>
    Until: 12:30,0,          !- <none>
    Until: 13:00,0,          !- <none>
    Until: 13:30,0,          !- <none>
    Until: 14:00,0,          !- <none>
    Until: 14:30,0,          !- <none>
    Until: 15:00,0,          !- <none>
    Until: 15:30,0,          !- <none>
    Until: 16:00,0,          !- <none>
    Until: 16:30,0,          !- <none>
    Until: 17:00,0,          !- <none>
    Until: 17:30,0,          !- <none>
    Until: 24:00,0,          !- <none>
    Through: 09/26,          !- <none>
    For: AllDays,            !- <none>
    Until: 07:30,0,          !- <none>
    Until: 08:00,0,          !- <none>
    Until: 08:30,0,          !- <none>
    Until: 09:00,0,          !- <none>
    Until: 09:30,0,          !- <none>
    Until: 10:00,0,          !- <none>
    Until: 10:30,0,          !- <none>
    Until: 11:00,0,          !- <none>
    Until: 11:30,0,          !- <none>
    Until: 12:00,0,          !- <none>
    Until: 12:30,0,          !- <none>
    Until: 13:00,0,          !- <none>
    Until: 13:30,0,          !- <none>
    Until: 14:00,0,          !- <none>
    Until: 14:30,0,          !- <none>
    Until: 15:00,0,          !- <none>
    Until: 15:30,0,          !- <none>
    Until: 16:00,0,          !- <none>
    Until: 16:30,0,          !- <none>
    Until: 17:00,0,          !- <none>
    Until: 17:30,0,          !- <none>
    Until: 24:00,0,          !- <none>
    Through: 09/27,          !- <none>
    For: AllDays,            !- <none>